5

H -4.300014303142447 0.6548006840487605 0.0006402577025975924
O -5.363697414940658 0.7889554988363883 -0.004603548108286836
H -5.588211446371384 0.6523816931328411 -0.9208403125625512
O -2.9037781049226554 0.45218035532921497 -0.0341562956689921
H -2.5088032331673253 1.3221197173940376 -0.06819486675709678
