11

O -0.03683983308689942 -0.08379501629086078 -0.2890881393893108
H -0.029957337911164717 -0.05465288122354397 -1.2460369091629266
O -1.4348430229341242 2.035754650784084 0.378072389494575
H -0.8500293797568192 1.265508636927681 0.10646234491861292
H -2.20713246002929 1.5917295619289342 0.7293874182368325
O -1.1697450230007382 -2.388734153645327 0.2132740844076467
H -0.7868686513125727 -1.4780137579994967 0.015580608076313144
H -0.3883258654571694 -2.9078856686894805 0.404703223966658
O 2.5051459198628074 -0.04576110532515116 0.3700615190872652
H 1.5372240724445525 -0.1165763668007799 0.09723921939398998
H 2.5676219987823057 0.8546301420114788 0.6881502439215594
